405235258
  -OEChem-04262407472D

 17 47  0     1  0  0  0  0  0999 V2000
  32.33765 -18.29535    0.0000 Fe  0  0  0  0  0  0  0  0  0  0  0  0
  28.06905 -22.56390    0.0000 Fe  0  0  0  0  0  0  0  0  0  0  0  0
  30.38700 -21.03755    0.0000 Fe  0  0  0  0  0  0  0  0  0  0  0  0
  34.65560 -25.30615    0.0000 Fe  0  0  0  0  0  0  0  0  0  0  0  0
  38.53610 -17.52960    0.0000 Fe  0  0  0  0  0  0  0  0  0  0  0  0
  42.80470 -21.79815    0.0000 Fe  0  0  0  0  0  0  0  0  0  0  0  0
  41.55775 -24.81980    0.0000 Fe  0  0  0  0  0  0  0  0  0  0  0  0
  45.82630 -20.55120    0.0000 Fe  0  0  0  0  0  0  0  0  0  0  0  0
  35.04880 -16.18950    0.0000 S   0  0  3  0  0  0  0  0  0  0  0  0
  38.35500 -27.44300    0.0000 S   0  0  3  0  0  0  0  0  0  0  0  0
  28.06905 -18.29535    0.0000 S   0  0  3  0  0  0  0  0  0  0  0  0
  32.33765 -22.56390    0.0000 S   0  0  3  0  0  0  0  0  0  0  0  0
  34.65560 -21.03755    0.0000 S   0  0  3  0  0  0  0  0  0  0  0  0
  30.38700 -25.30615    0.0000 S   0  0  3  0  0  0  0  0  0  0  0  0
  42.80470 -17.52960    0.0000 S   0  0  3  0  0  0  0  0  0  0  0  0
  38.53610 -21.79815    0.0000 S   0  0  3  0  0  0  0  0  0  0  0  0
  45.82630 -24.81980    0.0000 S   0  0  3  0  0  0  0  0  0  0  0  0
  1 11  1  0  0  0  0
  2 11  1  0  0  0  0
  1 12  1  0  0  0  0
  2 12  1  0  0  0  0
  3 13  1  0  0  0  0
  3 14  1  0  0  0  0
  4 13  1  0  0  0  0
  4 14  1  0  0  0  0
  3 11  1  0  0  0  0
  1 13  1  0  0  0  0
  2 14  1  0  0  0  0
  4 12  1  0  0  0  0
  5 15  1  0  0  0  0
  5 16  1  0  0  0  0
  6 15  1  0  0  0  0
  6 16  1  0  0  0  0
  1  9  1  0  0  0  0
  5  9  1  0  0  0  0
  6 17  1  0  0  0  0
  7 17  1  0  0  0  0
  7 16  1  0  0  0  0
  8 15  1  0  0  0  0
  8 17  1  0  0  0  0
  4 10  1  0  0  0  0
  7 10  1  0  0  0  0
  7 13  1  0  0  0  0
  1 2  0  0  0  0  0
  1 3  0  0  0  0  0
  1 4  0  0  0  0  0
  2 3  0  0  0  0  0
  2 4  0  0  0  0  0
  3 4  0  0  0  0  0
  5 6  0  0  0  0  0
  5 7  0  0  0  0  0
  5 8  0  0  0  0  0
  6 7  0  0  0  0  0
  6 8  0  0  0  0  0
  7 8  0  0  0  0  0
  1 5  0  0  0  0  0
  1 6  0  0  0  0  0
  1 7  0  0  0  0  0
  3 5  0  0  0  0  0
  3 6  0  0  0  0  0
  3 7  0  0  0  0  0
  4 5  0  0  0  0  0
  4 6  0  0  0  0  0
  4 7  0  0  0  0  0
M  END
> <PUBCHEM_COMPOUND_ID_TYPE>
0

> <PUBCHEM_TOTAL_CHARGE>
0

> <PUBCHEM_SUBSTANCE_ID>
405235258

> <PUBCHEM_SUBSTANCE_VERSION>
1

> <PUBCHEM_EXT_DATASOURCE_NAME>
BioCyc

> <PUBCHEM_EXT_DATASOURCE_REGID>
8FE-7S

> <PUBCHEM_SUBSTANCE_COMMENT>
TYPES: FeS-Centers

> <PUBCHEM_SUBSTANCE_SYNONYM>
an [8Fe-7S] cluster
a Fe8S7 cluster
a Fe8S7 center
Fe8S7
a Fe8S7 iron-sulfur center
a Fe8S7 iron-sulfur cluster
a [8Fe-7S] iron-sulfur center
[8Fe-7S]
P-cluster

> <PUBCHEM_XREF_EXT_ID>
8FE-7S

> <PUBCHEM_EXT_DATASOURCE_URL>
https://biocyc.org/

> <PUBCHEM_EXT_SUBSTANCE_URL>
https://biocyc.org/compound?orgid=META&id=8FE-7S

> <PUBCHEM_COORDINATE_TYPE>
1
3

$$$$
